Circuit: * D:\GITHUB\EE313-Term-project\Simulation\Display Unit\Display Unit.asc

Early termination of direct N-R iteration.
Direct Newton iteration failed to find .op point.  (Use ".option noopiter" to skip.)
Starting Gmin stepping
Gmin = 10
Gmin = 1.07374
Gmin = 0.115292
Gmin = 0.0123794
Gmin = 0.00132923
vernier = 0.5
vernier = 0.25
vernier = 0.125
vernier = 0.0625
Gmin = 0.00100083
vernier = 0.03125
vernier = 0.015625
vernier = 0.0078125
vernier = 0.00390625
vernier = 0.00195313
Gmin = 0.00100083
vernier = 0.000976563
vernier = 0.000488281
Gmin = 0
Gmin stepping failed

Starting source stepping with srcstepmethod=0
Source Step = 3.0303%
Source Step = 33.3333%
Source Step = 63.6364%
Source Step = 81.8182%
vernier = 0.0625
Source Step = 82.9545%
vernier = 0.015625
Source Step = 82.9575%
Source Step = 82.9871%
Source Step = 83.0167%
Source Step = 83.0463%
Source Step = 83.0759%
Source Step = 83.1055%
vernier = 0.00146484
Source Step = 83.1499%
Source Step = 83.1942%
Source Step = 83.2386%
Source Step = 83.283%
Source Step = 83.3274%
Source Step = 83.3718%
vernier = 0.00219727
Source Step = 83.4295%
Source Step = 83.4961%
Source Step = 83.5627%
Source Step = 83.6293%
Source Step = 83.6958%
vernier = 0.0032959
Source Step = 83.7791%
Source Step = 83.879%
Source Step = 83.9788%
Source Step = 84.0787%
Source Step = 84.1786%
vernier = 0.00494385
Source Step = 84.2984%
Source Step = 84.4482%
Source Step = 84.5981%
Source Step = 84.7479%
Source Step = 84.8977%
vernier = 0.00741577
Source Step = 85.07%
Source Step = 85.2947%
Source Step = 85.5194%
Source Step = 85.7441%
Source Step = 85.9688%
vernier = 0.0111237
Source Step = 86.216%
Source Step = 86.5531%
Source Step = 86.8902%
Source Step = 87.2273%
Source Step = 87.5644%
vernier = 0.0166855
Source Step = 87.9183%
Source Step = 88.4239%
Source Step = 88.9295%
Source Step = 89.4352%
Source Step = 89.9408%
Source Step = 90.4464%
vernier = 0.0250282
Source Step = 90.6739%
Source Step = 90.8635%
Source Step = 91.0531%
Source Step = 91.2428%
Source Step = 91.4324%
vernier = 0.00938559
Source Step = 91.5532%
Source Step = 91.6243%
Source Step = 91.6954%
Source Step = 91.7665%
Source Step = 91.8376%
Source Step = 91.9088%
vernier = 0.00351959
Source Step = 92.0154%
vernier = 0.000879899
Source Step = 92.0314%
Source Step = 92.0581%
Source Step = 92.0847%
Source Step = 92.1114%
Source Step = 92.1381%
vernier = 0.00131985
Source Step = 92.1767%
Source Step = 92.2167%
Source Step = 92.2567%
Source Step = 92.2967%
Source Step = 92.3367%
vernier = 0.00197977
Source Step = 92.3927%
Source Step = 92.4527%
Source Step = 92.5127%
Source Step = 92.5727%
Source Step = 92.6327%
Source Step = 92.6927%
vernier = 0.00296966
Source Step = 92.7707%
Source Step = 92.8606%
Source Step = 92.9506%
Source Step = 93.0406%
Source Step = 93.1306%
Source Step = 93.2206%
Source Step = 93.3106%
Source Step = 93.4006%
Source Step = 93.4906%
Source Step = 93.5806%
Source Step = 93.6706%
Source Step = 93.7605%
vernier = 0.00445449
Source Step = 93.8595%
Source Step = 93.9945%
Source Step = 94.0553%
Source Step = 94.089%
Source Step = 94.1227%
Source Step = 94.1565%
Source Step = 94.1902%
Source Step = 94.224%
Source Step = 94.2577%
Source Step = 94.2915%
Source Step = 94.3252%
Source Step = 94.359%
Source Step = 94.3927%
vernier = 0.00167043
Source Step = 94.4298%
Source Step = 94.4805%
Source Step = 94.5311%
Source Step = 94.5817%
Source Step = 94.6323%
Source Step = 94.6829%
Source Step = 94.7336%
Source Step = 94.7842%
Source Step = 94.8348%
Source Step = 94.8854%
vernier = 0.00250565
Source Step = 94.9487%
Source Step = 95.0246%
Source Step = 95.1005%
Source Step = 95.1765%
Source Step = 95.2524%
vernier = 0.00375847
Source Step = 95.3435%
Source Step = 95.4574%
Source Step = 95.5713%
Source Step = 95.6852%
Source Step = 95.7991%
vernier = 0.00563771
Source Step = 95.9301%
Source Step = 96.1009%
vernier = 0.00140943
Source Step = 96.1265%
Source Step = 96.1692%
Source Step = 96.2119%
Source Step = 96.2547%
Source Step = 96.2974%
Source Step = 96.3401%
Source Step = 96.3828%
Source Step = 96.4255%
Source Step = 96.4682%
vernier = 0.00211414
Source Step = 96.5173%
Source Step = 96.5814%
Source Step = 96.6455%
Source Step = 96.7095%
Source Step = 96.7736%
Source Step = 96.8376%
Source Step = 96.9017%
Source Step = 96.9658%
vernier = 0.00317121
Source Step = 97.0363%
Source Step = 97.1323%
Source Step = 97.2284%
Source Step = 97.3245%
Source Step = 97.4206%
vernier = 0.00475682
Source Step = 97.5215%
Source Step = 97.6657%
Source Step = 97.8098%
Source Step = 97.954%
Source Step = 98.0981%
Source Step = 98.2423%
vernier = 0.00713523
Source Step = 98.3558%
Source Step = 98.4098%
Source Step = 98.4639%
Source Step = 98.518%
Source Step = 98.572%
Source Step = 98.6261%
Source Step = 98.6801%
Source Step = 98.7342%
Source Step = 98.7882%
Source Step = 98.8423%
Source Step = 98.8963%
Source Step = 98.9504%
Source Step = 99.0044%
Source Step = 99.0585%
Source Step = 99.1126%
vernier = 0.00267571
Source Step = 99.1747%
Source Step = 99.2558%
Source Step = 99.3369%
Source Step = 99.418%
Source Step = 99.499%
vernier = 0.00401357
Source Step = 99.5882%
Source Step = 99.7099%
Source Step = 99.8315%
Source Step = 99.9531%
Source stepping succeeded in finding the operating point.


Date: Sun Jan 02 21:47:51 2022
Total elapsed time: 4.014 seconds.

tnom = 27
temp = 27
method = modified trap
totiter = 31001
traniter = 15252
tranpoints = 4396
accept = 3379
rejected = 1017
matrix size = 112
fillins = 459
solver = Normal
Thread vector: 7.4/4.9[2] 3.0/2.6[2] 2.3/2.0[2] 0.6/3.1[1]  2592/500
Matrix Compiler1: 52.48 KB object code size  8.3/4.6/[2.2]
Matrix Compiler2: 17.28 KB object code size  1.8/2.2/[0.8]

