Circuit: * D:\GITHUB\EE313-Term-project\Simulation\Sensing Unit.asc

Direct Newton iteration for .op point succeeded.

Date: Sun Jan 02 20:46:09 2022
Total elapsed time: 0.083 seconds.

tnom = 27
temp = 27
method = modified trap
totiter = 3488
traniter = 3477
tranpoints = 1520
accept = 1361
rejected = 159
matrix size = 106
fillins = 145
solver = Normal
Thread vector: 6.8/4.9[2] 2.8/2.1[2] 1.5/1.4[2] 0.5/6.5[1]  2592/500
Matrix Compiler1: 12.25 KB object code size  2.8/1.5/[0.9]
Matrix Compiler2: 11.37 KB object code size  1.0/1.3/[0.6]

