Circuit: * D:\GITHUB\EE313-Term-project\Simulation\Control Unit - 4\Control Unit.asc

WARNING: Less than two connections to node 5V.  This node is used by V4.
Direct Newton iteration for .op point succeeded.

Date: Fri Jan 28 13:13:35 2022
Total elapsed time: 0.386 seconds.

tnom = 27
temp = 27
method = modified trap
totiter = 13533
traniter = 13483
tranpoints = 5328
accept = 3430
rejected = 1898
matrix size = 185
fillins = 267
solver = Normal
Thread vector: 12.4/8.9[3] 4.8/3.0[3] 2.8/2.0[3] 2.4/2.0[2]  2592/500
Matrix Compiler1: 22.14 KB object code size  5.3/2.5/[1.4]
Matrix Compiler2: 20.08 KB object code size  2.1/3.5/[1.4]

