Circuit: * D:\GITHUB\EE313-Term-project\Simulation\Control Unit - 4\Control Unit.asc

WARNING: Less than two connections to node 5V.  This node is used by V4.
Direct Newton iteration failed to find .op point.  (Use ".option noopiter" to skip.)
Starting Gmin stepping
Gmin = 10
Gmin = 1.07374
Gmin = 0.115292
Gmin = 0.0123794
Gmin = 0.00132923
vernier = 0.5
vernier = 0.25
vernier = 0.125
vernier = 0.0625
Gmin = 0.00100083
vernier = 0.03125
vernier = 0.015625
vernier = 0.0078125
vernier = 0.00390625
vernier = 0.00195313
Gmin = 0.00100083
vernier = 0.000976563
vernier = 0.000488281
Gmin = 0
Gmin stepping failed

Starting source stepping with srcstepmethod=0
Source Step = 3.0303%
Source Step = 33.3333%
Source Step = 63.6364%
Source Step = 93.9394%
Source Step = 98.4908%
Source Step = 98.5204%
Source Step = 98.55%
Source Step = 98.5795%
Source Step = 98.6091%
vernier = 0.00146484
Source Step = 98.6402%
Source Step = 98.6846%
Source Step = 98.729%
Source Step = 98.7734%
Source Step = 98.8178%
Source Step = 98.8622%
vernier = 0.00219727
Source Step = 98.9287%
Source Step = 98.9953%
Source Step = 99.0619%
Source Step = 99.1285%
Source Step = 99.1951%
vernier = 0.0032959
Source Step = 99.2916%
Source Step = 99.3915%
Source Step = 99.4914%
Source Step = 99.5912%
Source Step = 99.6911%
vernier = 0.00494385
Source Step = 99.831%
Source Step = 99.9808%
Source stepping succeeded in finding the operating point.


Date: Fri Jan 28 11:09:20 2022
Total elapsed time: 1.193 seconds.

tnom = 27
temp = 27
method = modified trap
totiter = 16237
traniter = 12345
tranpoints = 4634
accept = 3117
rejected = 1517
matrix size = 186
fillins = 354
solver = Normal
Thread vector: 12.2/6.5[4] 4.8/4.4[1] 3.5/1.3[3] 1.1/1.7[1]  2592/500
Matrix Compiler1: 26.70 KB object code size  8.3/4.1/[3.0]
Matrix Compiler2: 21.20 KB object code size  2.8/4.0/[1.4]

