Circuit: * D:\GITHUB\EE313-Term-project\Simulation\Sensing Unit\Sensing Unit.asc

Direct Newton iteration for .op point succeeded.

Date: Sun Jan 02 20:55:53 2022
Total elapsed time: 0.087 seconds.

tnom = 27
temp = 27
method = modified trap
totiter = 3585
traniter = 3566
tranpoints = 1354
accept = 1253
rejected = 101
matrix size = 107
fillins = 147
solver = Normal
Thread vector: 6.7/4.8[2] 2.8/2.5[2] 1.6/2.0[1] 0.6/1.6[1]  2592/500
Matrix Compiler1: 12.38 KB object code size  2.8/1.3/[0.8]
Matrix Compiler2: 11.47 KB object code size  1.0/1.3/[0.6]

