Circuit: * D:\GITHUB\EE313-Term-project\Simulation\Sensing Unit\Sensing Unit.asc

Direct Newton iteration for .op point succeeded.

Date: Sun Jan 02 20:57:38 2022
Total elapsed time: 0.107 seconds.

tnom = 27
temp = 27
method = modified trap
totiter = 3504
traniter = 3485
tranpoints = 1315
accept = 1222
rejected = 93
matrix size = 107
fillins = 147
solver = Normal
Thread vector: 6.7/4.7[2] 2.9/2.2[2] 1.6/1.4[2] 0.6/1.6[1]  2592/500
Matrix Compiler1: 12.38 KB object code size  2.7/1.3/[0.7]
Matrix Compiler2: 11.47 KB object code size  1.0/1.3/[0.6]

